ieee37/OutputDSS.dss
Clear

New Circuit.ieee37_Reduced basekv=230 pu=1 MVAsc3=200000 MVAsc1=210000
New Line.701_702 Phases=3 bus1=701.1.2.3 bus2=702.1.2.3 Units=km Length=0.96 Rmatrix=[ 0.089981061001    0.0308522730008    0.0233712120014| 0.0308522730008    0.0849999999995    0.0308522729986| 0.0233712120014    0.0308522729986    0.0899810610002|] Xmatrix=[   0.056306818001  -0.00617424199914   -0.0114962120003| -0.00617424199914    0.0507196970017  -0.00617424199853|  -0.0114962120003  -0.00617424199853    0.0563068180014|] Cmatrix=[0                  0                  0| 0                  0                  0| 0                  0                  0|]
New Line.702_705 Phases=3 bus1=702.1.2.3 bus2=705.1.2.3 Units=km Length=0.4 Rmatrix=[ 0.396818181998    0.0985606059941    0.0932954550069| 0.0985606059941     0.399015152004    0.0985606059967| 0.0932954550069    0.0985606059967     0.396818182003|] Xmatrix=[ 0.146931818004    0.0518560609812    0.0402083330177| 0.0518560609812     0.140113636014    0.0518560609896| 0.0402083330177    0.0518560609896     0.146931818013|] Cmatrix=[0                  0                  0| 0                  0                  0| 0                  0                  0|]
New Line.702_713 Phases=3 bus1=702.1.2.3 bus2=713.1.2.3 Units=km Length=0.36 Rmatrix=[ 0.244999999998    0.0922537879988    0.0868371209988| 0.0922537879988     0.246628787999     0.092253787996| 0.0868371209988     0.092253787996     0.245000000001|] Xmatrix=[ 0.127140152001    0.0399810610014    0.0288068180005| 0.0399810610014     0.119810606001     0.039981061001| 0.0288068180005     0.039981061001        0.127140152|] Cmatrix=[0                  0                  0| 0                  0                  0| 0                  0                  0|]
New Line.702_703 Phases=3 bus1=702.1.2.3 bus2=703.1.2.3 Units=km Length=1.32 Rmatrix=[ 0.089981060997    0.0308522730025    0.0233712119974| 0.0308522730025    0.0849999999967    0.0308522730004| 0.0233712119974    0.0308522730004    0.0899810610014|] Xmatrix=[  0.0563068180004  -0.00617424200355   -0.0114962119991| -0.00617424200355    0.0507196970059  -0.00617424200291|  -0.0114962119991  -0.00617424200291    0.0563068179931|] Cmatrix=[0                  0                  0| 0                  0                  0| 0                  0                  0|]
New Line.705_742 Phases=3 bus1=705.1.2.3 bus2=742.1.2.3 Units=km Length=0.32 Rmatrix=[ 0.396818181999    0.0985606060007    0.0932954550005| 0.0985606060007     0.399015152001     0.098560606001| 0.0932954550005     0.098560606001     0.396818181999|] Xmatrix=[ 0.146931818001    0.0518560609965    0.0402083329999| 0.0518560609965     0.140113635998    0.0518560609987| 0.0402083329999    0.0518560609987     0.146931817999|] Cmatrix=[0                  0                  0| 0                  0                  0| 0                  0                  0|]
New Line.705_712 Phases=3 bus1=705.1.2.3 bus2=712.1.2.3 Units=km Length=0.24 Rmatrix=[ 0.396818181998    0.0985606059997    0.0932954549989| 0.0985606059997     0.399015152001    0.0985606060008| 0.0932954549989    0.0985606060008     0.396818181999|] Xmatrix=[ 0.146931817999    0.0518560609976    0.0402083330036| 0.0518560609976     0.140113635998    0.0518560609961| 0.0402083330036    0.0518560609961     0.146931818001|] Cmatrix=[0                  0                  0| 0                  0                  0| 0                  0                  0|]
New Line.713_704 Phases=3 bus1=713.1.2.3 bus2=704.1.2.3 Units=km Length=0.52 Rmatrix=[ 0.244999999998    0.0922537879996    0.0868371210015| 0.0922537879996        0.246628788    0.0922537879985| 0.0868371210015    0.0922537879985     0.245000000001|] Xmatrix=[ 0.127140151993    0.0399810610077    0.0288068179839| 0.0399810610077     0.119810606008    0.0399810609946| 0.0288068179839    0.0399810609946     0.127140151992|] Cmatrix=[0                  0                  0| 0                  0                  0| 0                  0                  0|]
New Line.703_727 Phases=3 bus1=703.1.2.3 bus2=727.1.2.3 Units=km Length=0.24 Rmatrix=[ 0.396818181996    0.0985606060015    0.0932954550015| 0.0985606060015     0.399015151998    0.0985606059981| 0.0932954550015    0.0985606059981        0.396818182|] Xmatrix=[  0.14693181799    0.0518560609971    0.0402083329988| 0.0518560609971     0.140113636002     0.051856060993| 0.0402083329988     0.051856060993      0.14693181799|] Cmatrix=[0                  0                  0| 0                  0                  0| 0                  0                  0|]
New Line.703_730 Phases=3 bus1=703.1.2.3 bus2=730.1.2.3 Units=km Length=0.6 Rmatrix=[          0.245    0.0922537879976    0.0868371210029| 0.0922537879976     0.246628788003    0.0922537880009| 0.0868371210029    0.0922537880009     0.244999999999|] Xmatrix=[ 0.127140151998    0.0399810610121    0.0288068179971| 0.0399810610121     0.119810605975    0.0399810609952| 0.0288068179971    0.0399810609952     0.127140151998|] Cmatrix=[0                  0                  0| 0                  0                  0| 0                  0                  0|]
New Line.727_744 Phases=3 bus1=727.1.2.3 bus2=744.1.2.3 Units=km Length=0.28 Rmatrix=[          0.245    0.0922537880009    0.0868371209987| 0.0922537880009        0.246628788    0.0922537879995| 0.0868371209987    0.0922537879995     0.244999999999|] Xmatrix=[ 0.127140151997    0.0399810610008    0.0288068179979| 0.0399810610008     0.119810606001    0.0399810609985| 0.0288068179979    0.0399810609985     0.127140152005|] Cmatrix=[0                  0                  0| 0                  0                  0| 0                  0                  0|]
New Line.730_709 Phases=3 bus1=730.1.2.3 bus2=709.1.2.3 Units=km Length=0.2 Rmatrix=[ 0.245000000001    0.0922537879998    0.0868371209985| 0.0922537879998     0.246628788001    0.0922537879987| 0.0868371209985    0.0922537879987              0.245|] Xmatrix=[ 0.127140152002    0.0399810609995    0.0288068180103| 0.0399810609995      0.11981060599    0.0399810610028| 0.0288068180103    0.0399810610028     0.127140152003|] Cmatrix=[0                  0                  0| 0                  0                  0| 0                  0                  0|]
New Line.704_714 Phases=3 bus1=704.1.2.3 bus2=714.1.2.3 Units=km Length=0.08 Rmatrix=[ 0.396818181998    0.0985606059971    0.0932954549986| 0.0985606059971     0.399015152001    0.0985606060009| 0.0932954549986    0.0985606060009     0.396818181999|] Xmatrix=[ 0.146931817993    0.0518560610087    0.0402083329978| 0.0518560610087     0.140113636005    0.0518560609995| 0.0402083329978    0.0518560609995     0.146931817999|] Cmatrix=[0                  0                  0| 0                  0                  0| 0                  0                  0|]
New Line.704_720 Phases=3 bus1=704.1.2.3 bus2=720.1.2.3 Units=km Length=0.8 Rmatrix=[ 0.245000000004    0.0922537879961    0.0868371209984| 0.0922537879961     0.246628787999    0.0922537880016| 0.0868371209984    0.0922537880016     0.245000000002|] Xmatrix=[ 0.127140151981    0.0399810610034    0.0288068179949| 0.0399810610034     0.119810606004     0.039981060996| 0.0288068179949     0.039981060996     0.127140152006|] Cmatrix=[0                  0                  0| 0                  0                  0| 0                  0                  0|]
New Line.714_718 Phases=3 bus1=714.1.2.3 bus2=718.1.2.3 Units=km Length=0.52 Rmatrix=[ 0.396818181999     0.098560605997    0.0932954549995|  0.098560605997     0.399015151999    0.0985606059993| 0.0932954549995    0.0985606059993     0.396818181999|] Xmatrix=[ 0.146931817995    0.0518560610078    0.0402083330064| 0.0518560610078     0.140113636001     0.051856060998| 0.0402083330064     0.051856060998     0.146931817995|] Cmatrix=[0                  0                  0| 0                  0                  0| 0                  0                  0|]
New Line.720_706 Phases=3 bus1=720.1.2.3 bus2=706.1.2.3 Units=km Length=0.6 Rmatrix=[          0.245    0.0922537879997    0.0868371210001| 0.0922537879997        0.246628788    0.0922537879992| 0.0868371210001    0.0922537879992     0.245000000001|] Xmatrix=[ 0.127140151998    0.0399810610041    0.0288068180008| 0.0399810610041     0.119810606001    0.0399810609986| 0.0288068180008    0.0399810609986     0.127140151993|] Cmatrix=[0                  0                  0| 0                  0                  0| 0                  0                  0|]
New Line.720_707 Phases=3 bus1=720.1.2.3 bus2=707.1.2.3 Units=km Length=0.92 Rmatrix=[ 0.396818182005    0.0985606060135    0.0932954549961| 0.0985606060135     0.399015152003    0.0985606060029| 0.0932954549961    0.0985606060029     0.396818181998|] Xmatrix=[ 0.146931817989     0.051856061017    0.0402083329924|  0.051856061017     0.140113635989     0.051856061017| 0.0402083329924     0.051856061017     0.146931817996|] Cmatrix=[0                  0                  0| 0                  0                  0| 0                  0                  0|]
New Line.706_725 Phases=3 bus1=706.1.2.3 bus2=725.1.2.3 Units=km Length=0.28 Rmatrix=[    0.396818182    0.0985606060007    0.0932954550004| 0.0985606060007        0.399015152    0.0985606059996| 0.0932954550004    0.0985606059996        0.396818182|] Xmatrix=[    0.146931818     0.051856061004    0.0402083330018|  0.051856061004     0.140113635998    0.0518560610025| 0.0402083330018    0.0518560610025     0.146931817998|] Cmatrix=[0                  0                  0| 0                  0                  0| 0                  0                  0|]
New Line.707_724 Phases=3 bus1=707.1.2.3 bus2=724.1.2.3 Units=km Length=0.76 Rmatrix=[    0.396818182    0.0985606060001    0.0932954549995| 0.0985606060001        0.399015152    0.0985606060006| 0.0932954549995    0.0985606060006        0.396818182|] Xmatrix=[ 0.146931817997     0.051856061004    0.0402083330163|  0.051856061004     0.140113635997    0.0518560609988| 0.0402083330163    0.0518560609988     0.146931817999|] Cmatrix=[0                  0                  0| 0                  0                  0| 0                  0                  0|]
New Line.707_722 Phases=3 bus1=707.1.2.3 bus2=722.1.2.3 Units=km Length=0.12 Rmatrix=[ 0.396818182001    0.0985606060001    0.0932954549997| 0.0985606060001        0.399015152    0.0985606059991| 0.0932954549997    0.0985606059991        0.396818182|] Xmatrix=[ 0.146931817994    0.0518560609977    0.0402083329984| 0.0518560609977        0.140113636    0.0518560610009| 0.0402083329984    0.0518560610009     0.146931818003|] Cmatrix=[0                  0                  0| 0                  0                  0| 0                  0                  0|]
New Line.708_733 Phases=3 bus1=708.1.2.3 bus2=733.1.2.3 Units=km Length=0.32 Rmatrix=[          0.245    0.0922537880018     0.086837120999| 0.0922537880018        0.246628788    0.0922537880003|  0.086837120999    0.0922537880003     0.245000000002|] Xmatrix=[ 0.127140152014    0.0399810610052     0.028806818001| 0.0399810610052     0.119810605992    0.0399810609998|  0.028806818001    0.0399810609998        0.127140152|] Cmatrix=[0                  0                  0| 0                  0                  0| 0                  0                  0|]
New Line.708_732 Phases=3 bus1=708.1.2.3 bus2=732.1.2.3 Units=km Length=0.32 Rmatrix=[ 0.396818182002        0.098560606    0.0932954549994|     0.098560606     0.399015151999    0.0985606059988| 0.0932954549994    0.0985606059988        0.396818182|] Xmatrix=[ 0.146931818006    0.0518560609966    0.0402083329997| 0.0518560609966     0.140113636002    0.0518560609975| 0.0402083329997    0.0518560609975     0.146931817993|] Cmatrix=[0                  0                  0| 0                  0                  0| 0                  0                  0|]
New Line.733_734 Phases=3 bus1=733.1.2.3 bus2=734.1.2.3 Units=km Length=0.56 Rmatrix=[          0.245    0.0922537879998    0.0868371209996| 0.0922537879998        0.246628788    0.0922537880008| 0.0868371209996    0.0922537880008     0.244999999999|] Xmatrix=[ 0.127140151995    0.0399810610033    0.0288068180011| 0.0399810610033     0.119810606002    0.0399810610018| 0.0288068180011    0.0399810610018     0.127140152003|] Cmatrix=[0                  0                  0| 0                  0                  0| 0                  0                  0|]
New Line.709_708 Phases=3 bus1=709.1.2.3 bus2=708.1.2.3 Units=km Length=0.32 Rmatrix=[          0.245     0.092253788002    0.0868371209981|  0.092253788002     0.246628787999    0.0922537879972| 0.0868371209981    0.0922537879972     0.245000000003|] Xmatrix=[ 0.127140152014    0.0399810609937    0.0288068180046| 0.0399810609937     0.119810605984    0.0399810609994| 0.0288068180046    0.0399810609994     0.127140151998|] Cmatrix=[0                  0                  0| 0                  0                  0| 0                  0                  0|]
New Line.709_731 Phases=3 bus1=709.1.2.3 bus2=731.1.2.3 Units=km Length=0.6 Rmatrix=[ 0.245000000001    0.0922537880004     0.086837120999| 0.0922537880004     0.246628788001    0.0922537880003|  0.086837120999    0.0922537880003     0.245000000001|] Xmatrix=[    0.127140152    0.0399810610021    0.0288068180041| 0.0399810610021     0.119810605996    0.0399810610067| 0.0288068180041    0.0399810610067     0.127140151998|] Cmatrix=[0                  0                  0| 0                  0                  0| 0                  0                  0|]
New Line.710_735 Phases=3 bus1=710.1.2.3 bus2=735.1.2.3 Units=km Length=0.2 Rmatrix=[    0.396818182    0.0985606059993    0.0932954549998| 0.0985606059993        0.399015152    0.0985606059993| 0.0932954549998    0.0985606059993     0.396818182001|] Xmatrix=[ 0.146931817997     0.051856061001    0.0402083330033|  0.051856061001     0.140113635999    0.0518560610028| 0.0402083330033    0.0518560610028     0.146931817999|] Cmatrix=[0                  0                  0| 0                  0                  0| 0                  0                  0|]
New Line.710_736 Phases=3 bus1=710.1.2.3 bus2=736.1.2.3 Units=km Length=1.28 Rmatrix=[ 0.396818182001    0.0985606059998    0.0932954550005| 0.0985606059998     0.399015152001    0.0985606059999| 0.0932954550005    0.0985606059999        0.396818182|] Xmatrix=[ 0.146931817997    0.0518560609973    0.0402083330103| 0.0518560609973     0.140113636006    0.0518560610002| 0.0402083330103    0.0518560610002     0.146931817998|] Cmatrix=[0                  0                  0| 0                  0                  0| 0                  0                  0|]
New Line.711_741 Phases=3 bus1=711.1.2.3 bus2=741.1.2.3 Units=km Length=0.4 Rmatrix=[ 0.245000000001    0.0922537880003    0.0868371210004| 0.0922537880003     0.246628787999    0.0922537879993| 0.0868371210004    0.0922537879993              0.245|] Xmatrix=[ 0.127140151999    0.0399810609965    0.0288068180006| 0.0399810609965     0.119810606002    0.0399810610018| 0.0288068180006    0.0399810610018     0.127140152003|] Cmatrix=[0                  0                  0| 0                  0                  0| 0                  0                  0|]
New Line.711_740 Phases=3 bus1=711.1.2.3 bus2=740.1.2.3 Units=km Length=0.2 Rmatrix=[ 0.396818182002    0.0985606059998    0.0932954550002| 0.0985606059998     0.399015151999    0.0985606059997| 0.0932954550002    0.0985606059997     0.396818182001|] Xmatrix=[ 0.146931817996    0.0518560609988    0.0402083330005| 0.0518560609988     0.140113635999     0.051856061004| 0.0402083330005     0.051856061004     0.146931818003|] Cmatrix=[0                  0                  0| 0                  0                  0| 0                  0                  0|]
New Line.744_728 Phases=3 bus1=744.1.2.3 bus2=728.1.2.3 Units=km Length=0.2 Rmatrix=[ 0.396818182001    0.0985606060017     0.093295455001| 0.0985606060017     0.399015152001    0.0985606059994|  0.093295455001    0.0985606059994        0.396818182|] Xmatrix=[ 0.146931817998    0.0518560609982     0.040208332994| 0.0518560609982     0.140113636005    0.0518560610041|  0.040208332994    0.0518560610041     0.146931818004|] Cmatrix=[0                  0                  0| 0                  0                  0| 0                  0                  0|]
New Line.744_729 Phases=3 bus1=744.1.2.3 bus2=729.1.2.3 Units=km Length=0.28 Rmatrix=[ 0.396818181999    0.0985606059999    0.0932954549998| 0.0985606059999        0.399015152    0.0985606059987| 0.0932954549998    0.0985606059987     0.396818182002|] Xmatrix=[    0.146931818    0.0518560610023    0.0402083329934| 0.0518560610023     0.140113636007    0.0518560610021| 0.0402083329934    0.0518560610021     0.146931818004|] Cmatrix=[0                  0                  0| 0                  0                  0| 0                  0                  0|]
New Line.734_710 Phases=3 bus1=734.1.2.3 bus2=710.1.2.3 Units=km Length=0.52 Rmatrix=[ 0.396818182001    0.0985606059966    0.0932954549973| 0.0985606059966        0.399015152    0.0985606059987| 0.0932954549973    0.0985606059987     0.396818181998|] Xmatrix=[0.146931818003     0.051856061001     0.040208333003| 0.051856061001     0.140113635982    0.0518560609968| 0.040208333003    0.0518560609968     0.146931818006|] Cmatrix=[0                  0                  0| 0                  0                  0| 0                  0                  0|]
New Line.734_737 Phases=3 bus1=734.1.2.3 bus2=737.1.2.3 Units=km Length=0.64 Rmatrix=[ 0.245000000001        0.092253788    0.0868371210005|     0.092253788     0.246628788001    0.0922537880013| 0.0868371210005    0.0922537880013              0.245|] Xmatrix=[ 0.127140151996    0.0399810609955    0.0288068179996| 0.0399810609955     0.119810606001    0.0399810609982| 0.0288068179996    0.0399810609982     0.127140151991|] Cmatrix=[0                  0                  0| 0                  0                  0| 0                  0                  0|]
New Line.737_738 Phases=3 bus1=737.1.2.3 bus2=738.1.2.3 Units=km Length=0.4 Rmatrix=[          0.245    0.0922537880002    0.0868371210006| 0.0922537880002     0.246628787999    0.0922537879993| 0.0868371210006    0.0922537879993              0.245|] Xmatrix=[ 0.127140152004    0.0399810610024    0.0288068180032| 0.0399810610024     0.119810606004    0.0399810610029| 0.0288068180032    0.0399810610029     0.127140151996|] Cmatrix=[0                  0                  0| 0                  0                  0| 0                  0                  0|]
New Line.738_711 Phases=3 bus1=738.1.2.3 bus2=711.1.2.3 Units=km Length=0.4 Rmatrix=[ 0.245000000001    0.0922537880003    0.0868371210002| 0.0922537880003     0.246628787998    0.0922537880004| 0.0868371210002    0.0922537880004     0.245000000001|] Xmatrix=[ 0.127140152003    0.0399810609916    0.0288068180049| 0.0399810609916     0.119810606008    0.0399810610029| 0.0288068180049    0.0399810610029     0.127140152004|] Cmatrix=[0                  0                  0| 0                  0                  0| 0                  0                  0|]
New Line.799r_701 Phases=3 bus1=799r.1.2.3 bus2=701.1.2.3 Units=km Length=1.85 Rmatrix=[ 0.0554166669964    0.0127462120211   0.00638257599981|  0.0127462120211    0.0501136360005    0.0127462120126| 0.00638257599981    0.0127462120126    0.0554166669993|] Xmatrix=[  0.0373674239927  -0.00696969702991  -0.00789772700974| -0.00696969702991     0.035984847988  -0.00696969702124| -0.00789772700974  -0.00696969702124    0.0373674239986|] Cmatrix=[0                  0                  0| 0                  0                  0| 0                  0                  0|]
New Line.799_799r Phases=1 bus1=799.2 bus2=799r.2 Units=km Length=1 Rmatrix=0.001 Xmatrix=0 Cmatrix=0
New Transformer.SubXF Phases=3 Windings=2 XHL=8 %Noloadloss=0 %imag=0 sub=y Wdg=1 Bus=sourcebus Conn=delta kV=230 kVA=2500 %R=1 Wdg=2 Bus=799 Conn=delta kV=4.8 kVA=2500 %R=1
New Transformer.XFM1 Phases=3 Windings=2 XHL=1.81 %Noloadloss=0 %imag=0 Wdg=1 Bus=709 Conn=delta kV=4.8 kVA=500 %R=0.045 Wdg=2 Bus=775 Conn=delta kV=0.48 kVA=500 %R=0.045
New Transformer.reg1a Phases=1 Windings=2 Buses=[799.1.2 799r.1.2] Conns=delta kVs=[4.8         4.8] kVAs=[2000  2000] XHL=1 %Noloadloss=0 %imag=0
New Transformer.reg1c Buses=[799.3.2 799r.3.2] %Noloadloss=0 %imag=0 Like=reg1a
New Load.Load_701.1_model_1 Phases=1 bus1=701.1 Kv=2.77 Kw=214.6891 Model=1 Kvar=183.1218 Vminpu=0.01
New Load.Load_701.2_model_1 Phases=1 bus1=701.2 Kv=2.77 Kw=140 Model=1 Kvar=70 Vminpu=0.01
New Load.Load_701.3_model_1 Phases=1 bus1=701.3 Kv=2.77 Kw=275.3109 Model=1 Kvar=61.8782 Vminpu=0.01
New Load.Load_713.1_model_1 Phases=1 bus1=713.1 Kv=2.77 Kw=30.953 Model=1 Kvar=44.5374 Vminpu=0.01
New Load.Load_713.3_model_1 Phases=1 bus1=713.3 Kv=2.77 Kw=54.047 Model=1 Kvar=-4.5374 Vminpu=0.01
New Load.Load_727.1_model_1 Phases=1 bus1=727.1 Kv=2.77 Kw=14.9378 Model=1 Kvar=22.6244 Vminpu=0.01
New Load.Load_727.3_model_1 Phases=1 bus1=727.3 Kv=2.77 Kw=27.0622 Model=1 Kvar=-1.6244 Vminpu=0.01
New Load.Load_720.1_model_1 Phases=1 bus1=720.1 Kv=2.77 Kw=30.953 Model=1 Kvar=44.5374 Vminpu=0.01
New Load.Load_720.3_model_1 Phases=1 bus1=720.3 Kv=2.77 Kw=54.047 Model=1 Kvar=-4.5374 Vminpu=0.01
New Load.Load_712.1_model_1 Phases=1 bus1=712.1 Kv=2.77 Kw=30.953 Model=1 Kvar=44.5374 Vminpu=0.01
New Load.Load_712.3_model_1 Phases=1 bus1=712.3 Kv=2.77 Kw=54.047 Model=1 Kvar=-4.5374 Vminpu=0.01
New Load.Load_725.2_model_1 Phases=1 bus1=725.2 Kv=2.77 Kw=27.0622 Model=1 Kvar=-1.6244 Vminpu=0.01
New Load.Load_725.3_model_1 Phases=1 bus1=725.3 Kv=2.77 Kw=14.9378 Model=1 Kvar=22.6244 Vminpu=0.01
New Load.Load_732.1_model_1 Phases=1 bus1=732.1 Kv=2.77 Kw=14.9378 Model=1 Kvar=22.6244 Vminpu=0.01
New Load.Load_732.3_model_1 Phases=1 bus1=732.3 Kv=2.77 Kw=27.0622 Model=1 Kvar=-1.6244 Vminpu=0.01
New Load.Load_735.1_model_1 Phases=1 bus1=735.1 Kv=2.77 Kw=30.953 Model=1 Kvar=44.5374 Vminpu=0.01
New Load.Load_735.3_model_1 Phases=1 bus1=735.3 Kv=2.77 Kw=54.047 Model=1 Kvar=-4.5374 Vminpu=0.01
New Load.Load_740.1_model_1 Phases=1 bus1=740.1 Kv=2.77 Kw=30.953 Model=1 Kvar=44.5374 Vminpu=0.01
New Load.Load_740.3_model_1 Phases=1 bus1=740.3 Kv=2.77 Kw=54.047 Model=1 Kvar=-4.5374 Vminpu=0.01
New Load.Load_744.1_model_1 Phases=1 bus1=744.1 Kv=2.77 Kw=27.0622 Model=1 Kvar=-1.6244 Vminpu=0.01
New Load.Load_744.2_model_1 Phases=1 bus1=744.2 Kv=2.77 Kw=14.9378 Model=1 Kvar=22.6244 Vminpu=0.01
New Load.Load_734.1_model_1 Phases=1 bus1=734.1 Kv=2.77 Kw=14.9378 Model=1 Kvar=22.6244 Vminpu=0.01
New Load.Load_734.3_model_1 Phases=1 bus1=734.3 Kv=2.77 Kw=27.0622 Model=1 Kvar=-1.6244 Vminpu=0.01
New Load.Load_738.1_model_1 Phases=1 bus1=738.1 Kv=2.77 Kw=80.8979 Model=1 Kvar=-5.3731 Vminpu=0.01
New Load.Load_738.2_model_1 Phases=1 bus1=738.2 Kv=2.77 Kw=45.1021 Model=1 Kvar=67.3731 Vminpu=0.01
New Load.Load_728.1_model_1 Phases=1 bus1=728.1 Kv=2.77 Kw=42 Model=1 Kvar=21 Vminpu=0.01
New Load.Load_728.2_model_1 Phases=1 bus1=728.2 Kv=2.77 Kw=42 Model=1 Kvar=21 Vminpu=0.01
New Load.Load_728.3_model_1 Phases=1 bus1=728.3 Kv=2.77 Kw=42 Model=1 Kvar=21 Vminpu=0.01
New Load.Load_730.1_model_2 Phases=1 bus1=730.1 Kv=2.77 Kw=30.953 Model=2 Kvar=44.5374 Vminpu=0.01
New Load.Load_730.3_model_2 Phases=1 bus1=730.3 Kv=2.77 Kw=54.047 Model=2 Kvar=-4.5374 Vminpu=0.01
New Load.Load_742.1_model_2 Phases=1 bus1=742.1 Kv=2.77 Kw=5.1547 Model=2 Kvar=-0.3094 Vminpu=0.01
New Load.Load_742.2_model_2 Phases=1 bus1=742.2 Kv=2.77 Kw=56.8923 Model=2 Kvar=-0.22799 Vminpu=0.01
New Load.Load_742.3_model_2 Phases=1 bus1=742.3 Kv=2.77 Kw=30.953 Model=2 Kvar=44.5374 Vminpu=0.01
New Load.Load_724.2_model_2 Phases=1 bus1=724.2 Kv=2.77 Kw=27.0622 Model=2 Kvar=-1.6244 Vminpu=0.01
New Load.Load_724.3_model_2 Phases=1 bus1=724.3 Kv=2.77 Kw=14.9378 Model=2 Kvar=22.6244 Vminpu=0.01
New Load.Load_731.2_model_2 Phases=1 bus1=731.2 Kv=2.77 Kw=54.047 Model=2 Kvar=-4.5374 Vminpu=0.01
New Load.Load_731.3_model_2 Phases=1 bus1=731.3 Kv=2.77 Kw=30.953 Model=2 Kvar=44.5374 Vminpu=0.01
New Load.Load_736.2_model_2 Phases=1 bus1=736.2 Kv=2.77 Kw=27.0622 Model=2 Kvar=-1.6244 Vminpu=0.01
New Load.Load_736.3_model_2 Phases=1 bus1=736.3 Kv=2.77 Kw=14.9378 Model=2 Kvar=22.6244 Vminpu=0.01
New Load.Load_718.1_model_2 Phases=1 bus1=718.1 Kv=2.77 Kw=54.047 Model=2 Kvar=-4.5374 Vminpu=0.01
New Load.Load_718.2_model_2 Phases=1 bus1=718.2 Kv=2.77 Kw=30.953 Model=2 Kvar=44.5374 Vminpu=0.01
New Load.Load_714.1_model_4 Phases=1 bus1=714.1 Kv=2.77 Kw=10.8094 Model=4 Kvar=-0.90748 Vminpu=0.01
New Load.Load_714.2_model_4 Phases=1 bus1=714.2 Kv=2.77 Kw=19.5774 Model=4 Kvar=7.8453 Vminpu=0.01
New Load.Load_714.3_model_4 Phases=1 bus1=714.3 Kv=2.77 Kw=7.6132 Model=4 Kvar=11.0622 Vminpu=0.01
New Load.Load_722.1_model_4 Phases=1 bus1=722.1 Kv=2.77 Kw=7.6132 Model=4 Kvar=11.0622 Vminpu=0.01
New Load.Load_722.2_model_4 Phases=1 bus1=722.2 Kv=2.77 Kw=90.2073 Model=4 Kvar=-5.4145 Vminpu=0.01
New Load.Load_722.3_model_4 Phases=1 bus1=722.3 Kv=2.77 Kw=63.1795 Model=4 Kvar=74.3523 Vminpu=0.01
New Load.Load_733.1_model_4 Phases=1 bus1=733.1 Kv=2.77 Kw=54.047 Model=4 Kvar=-4.5374 Vminpu=0.01
New Load.Load_733.2_model_4 Phases=1 bus1=733.2 Kv=2.77 Kw=30.953 Model=4 Kvar=44.5374 Vminpu=0.01
New Load.Load_741.1_model_4 Phases=1 bus1=741.1 Kv=2.77 Kw=14.9378 Model=4 Kvar=22.6244 Vminpu=0.01
New Load.Load_741.3_model_4 Phases=1 bus1=741.3 Kv=2.77 Kw=27.0622 Model=4 Kvar=-1.6244 Vminpu=0.01
New Load.Load_737.1_model_4 Phases=1 bus1=737.1 Kv=2.77 Kw=90.2073 Model=4 Kvar=-5.4145 Vminpu=0.01
New Load.Load_737.2_model_4 Phases=1 bus1=737.2 Kv=2.77 Kw=49.7927 Model=4 Kvar=75.4145 Vminpu=0.01
New Load.Load_729.1_model_4 Phases=1 bus1=729.1 Kv=2.77 Kw=27.0622 Model=4 Kvar=-1.6244 Vminpu=0.01
New Load.Load_729.2_model_4 Phases=1 bus1=729.2 Kv=2.77 Kw=14.9378 Model=4 Kvar=22.6244 Vminpu=0.01


! Let DSS estimate the voltage bases
Set voltagebases=[230 4.8 0.48]
Calcvoltagebases     ! This also establishes the bus list

Buscoords OutputDSS_buscoords.csv


set maxiterations=1000
